/*--------------------------------*- C++ -*----------------------------------*\
| =========                 |                                                 |
| \\      /  F ield         | OpenFOAM: The Open Source CFD Toolbox           |
|  \\    /   O peration     | Version:  v2006                                 |
|   \\  /    A nd           | Website:  www.openfoam.com                      |
|    \\/     M anipulation  |                                                 |
\*---------------------------------------------------------------------------*/
FoamFile
{
    version     2.0;
    format      ascii;
    class       volScalarField;
    object      omega;
}
// * * * * * * * * * * * * * * * * * * * * * * * * * * * * * * * * * * * * * //

dimensions      [0 0 -1 0 0 0 0];

internalField   uniform 2;

boundaryField
{
    INLET
    {
        type            inletOutlet;
        inletValue      $internalField;
        value           $internalField;
    }
    JET_WALL
    {
        type            omegaWallFunction;
        value           $internalField;
    }
    DOWN
    {
        type            inletOutlet;
        inletValue      $internalField;
        value           $internalField;
    }
    UP
    {
        type            omegaWallFunction;
        value           $internalField;
    }
    OUTWALL
    {
        type            inletOutlet;
        inletValue      $internalField;
        value           $internalField;
    }
}


// ************************************************************************* //




// ************************************************************************* //
